src/test/resources/netPositionsData/denmarkRenamedIgmFile.uct
##C 2007.05.01

##N
##ZDK
ASLACK11 SLACK        0 2 400.00   10.00   10.00   10.00   10.00  590.40   20.00
ALOAD111 LOAD         1 2 400.00   10.00   10.00   10.00   10.00   20.00   20.00
AFG_HK11 SHADOW       1 2 400.00   10.00   10.00   10.00   10.00  590.40   20.00
ATJ_K131 SHADOW       1 2 400.00   10.00   10.00   10.00   10.00 -1944.7   20.00
##ZXX
XFG_HK11 OUT          1 0 400.00   10.00   10.00   10.00   10.00   20.00   20.00
XTJ_K13K VIRTHUB      1 0 400.00   10.00   10.00   10.00   10.00   20.00   20.00
##L
AFG_HK11 XFG_HK11 1 0  20.00  20.00   20.00   5000
ATJ_K131 XTJ_K13K 1 0  20.00  20.00   20.00   5000
##T
##R
